
-------------------------------------------------------------------------
|    ___ _   _ ___                                                      |
|   / __| | | |_  )   Release 8.4.0 "Harrier"                           |
|   \__ \ |_| |/ /                                                      |
|   |___/\___//___|   Suite (Computational Fluid Dynamics Code)         |
|                                                                       |
-------------------------------------------------------------------------
| SU2 Project Website: https://su2code.github.io                        |
|                                                                       |
| The SU2 Project is maintained by the SU2 Foundation                   |
| (http://su2foundation.org)                                            |
-------------------------------------------------------------------------
| Copyright 2012-2026, SU2 Contributors                                 |
|                                                                       |
| SU2 is free software; you can redistribute it and/or                  |
| modify it under the terms of the GNU Lesser General Public            |
| License as published by the Free Software Foundation; either          |
| version 2.1 of the License, or (at your option) any later version.    |
|                                                                       |
| SU2 is distributed in the hope that it will be useful,                |
| but WITHOUT ANY WARRANTY; without even the implied warranty of        |
| MERCHANTABILITY or FITNESS FOR A PARTICULAR PURPOSE. See the GNU      |
| Lesser General Public License for more details.                       |
|                                                                       |
| You should have received a copy of the GNU Lesser General Public      |
| License along with SU2. If not, see <http://www.gnu.org/licenses/>.   |
-------------------------------------------------------------------------

Parsing config file for zone 0

----------------- Physical Case Definition ( Zone 0 ) -------------------
Incompressible RANS equations.
Turbulence model: Menter's k-omega SST-2003m with no production modification
using default hard coded lower limit clipping.
Hybrid RANS/LES: No Hybrid RANS/LES
No restart solution, use the values at infinity (freestream).
Non-Dimensional simulation using intialization values.
The reference area is 1 m^2.
The semi-span will be computed using the max y(3D) value.
The reference length is 2 m.
Surface(s) plotted in the output file: jet_inlet, outlet.
Input mesh file name: mesh/jet.su2

--------------- Space Numerical Integration ( Zone 0 ) ------------------
Flux difference splitting (FDS) upwind scheme for the flow inviscid terms.
First order integration in space.
Average of gradients with correction (viscous flow terms).
Average of gradients with correction (viscous turbulence terms).
Gradient for upwind reconstruction: Green-Gauss.
Gradient for viscous and source terms: Green-Gauss.

--------------- Time Numerical Integration  ( Zone 0 ) ------------------
Local time stepping (steady state simulation).
Euler implicit method for the flow equations.
FGMRES is used for solving the linear system.
Using a ILU(0) preconditioning.
Convergence criteria of the linear solver: 1e-08.
Max number of linear iterations: 15.
CFL adaptation. Factor down: 0.5, factor up: 1.2,
                lower limit: 1, upper limit: 50,
                acceptable linear residual: 0.001'
                starting iteration: 0.
Courant-Friedrichs-Lewy number:       10
Euler implicit time integration for the turbulence model.

------------------ Convergence Criteria  ( Zone 0 ) ---------------------
Maximum number of solver subiterations: 10000.
Begin convergence monitoring at iteration 100.
Residual minimum value: 1e-8.
Cauchy series min. value: 1e-06.
Number of Cauchy elements: 100.
Begin windowed time average at iteration 0.

-------------------- Output Information ( Zone 0 ) ----------------------
File writing frequency: 
+------------------------------------+
|                     File| Frequency|
+------------------------------------+
|                  RESTART|       500|
|           PARAVIEW_ASCII|       500|
+------------------------------------+
Writing the convergence history file every 1 inner iterations.
Writing the screen convergence history every 100 inner iterations.
The tabular file format is CSV (.csv).
Convergence history file name: results/history.
Forces breakdown file name: forces_breakdown.dat.
Surface file name: surface.
Volume file name: vol_solution.
Restart file name: results/restart.dat.

------------- Config File Boundary Information ( Zone 0 ) ---------------
+-----------------------------------------------------------------------+
|                        Marker Type|                        Marker Name|
+-----------------------------------------------------------------------+
|                     Symmetry plane|                               axis|
+-----------------------------------------------------------------------+
|                     Inlet boundary|                          jet_inlet|
+-----------------------------------------------------------------------+
|                    Outlet boundary|                             outlet|
+-----------------------------------------------------------------------+
|                     Heat flux wall|                       nozzle_plate|
|                                   |                           top_wall|
+-----------------------------------------------------------------------+

-------------------- Output Preprocessing ( Zone 0 ) --------------------

WARNING: SURFACE_PRESSURE_DROP can only be computed for at least 2 surfaces (outlet, inlet, ...)

Screen output fields: INNER_ITER, RMS_PRESSURE, RMS_TKE, RMS_DISSIPATION, AVG_SOUND_SPEED
History output group(s): ITER, RMS_RES
Convergence field(s): RMS_PRESSURE, RMS_TKE, RMS_DISSIPATION
Warning: No (valid) fields chosen for time convergence monitoring. Time convergence monitoring inactive.
  Info: Ignoring the following volume output fields/groups:
  SOUND_SPEED
Volume output fields: PRIMITIVE, RESIDUAL, COORDINATES, SOLUTION

------------------- Geometry Preprocessing ( Zone 0 ) -------------------
Two dimensional problem.
28713 grid points before partitioning.
56787 volume elements before partitioning.
5 surface markers.
4 boundary elements in index 0 (Marker = jet_inlet).
188 boundary elements in index 1 (Marker = nozzle_plate).
90 boundary elements in index 2 (Marker = top_wall).
153 boundary elements in index 3 (Marker = outlet).
202 boundary elements in index 4 (Marker = axis).
Executing the partitioning functions.
Building the graph adjacency structure.
Calling ParMETIS... graph partitioning complete (1390 edge cuts).
Distributing ParMETIS coloring.
Rebalancing vertices.
Rebalancing volume element connectivity.
Rebalancing markers and surface elements.
30116 vertices including ghost points. 
58176 interior elements including halo cells. 
58176 triangles.
Establishing MPI communication patterns.
Setting point connectivity.
Renumbering points (Reverse Cuthill McKee Ordering).
Recomputing point connectivity.
Setting element connectivity.
Checking the numerical grid orientation.
There has been a re-orientation of 58176 TRIANGLE volume elements.
There has been a re-orientation of 645 LINE surface elements.
Identifying edges and vertices.
Setting the control volume structure.
Area of the computational grid: 10137.3.
Searching for the closest normal neighbors to the surfaces.
Storing a mapping from global to local point index.
Compute the surface curvature.
Max K: 5.1233. Mean K: 0.0336173. Standard deviation K: 0.343726.
Checking for periodicity.
Computing mesh quality statistics for the dual control volumes.
+--------------------------------------------------------------+
|           Mesh Quality Metric|        Minimum|        Maximum|
+--------------------------------------------------------------+
|    Orthogonality Angle (deg.)|        73.4324|        89.9918|
|     CV Face Area Aspect Ratio|        1.00067|        5.92544|
|           CV Sub-Volume Ratio|        1.00007|        2.34242|
+--------------------------------------------------------------+
Finding max control volume width.
Communicating number of neighbors.
Wetted area = 0 m^2.
Area projection in the x-plane = 0 m, y-plane = 0 m.
Max. coordinate in the x-direction = -1e+10 m, y-direction = -1e+10 m.
Min. coordinate in the x-direction = 1e+10 m, y-direction = 1e+10 m.
Computing wall distances.

-------------------- Solver Preprocessing ( Zone 0 ) --------------------
Incompressible flow: rho_ref, vel_ref, and temp_ref
are based on the initial values, p_ref = rho_ref*vel_ref^2.
Force coefficients computed using initial values.
The reference area for force coeffs. is 1 m^2.
The reference length for force coeffs. is 2 m.
The pressure is decomposed into thermodynamic and dynamic components.
The initial value of the dynamic pressure is 0.
Mach number: 0.00265372, computed using the Bulk modulus.
For external flows, the initial state is imposed at the far-field.
Angle of attack (deg): 0, computed using the initial velocity.
Side slip angle (deg): 0, computed using the initial velocity.
Reynolds number per meter: 1000, computed using initial values.
Reynolds number is a byproduct of inputs only (not used internally).
SI units only. The grid should be dimensional (meters).
No energy equation.

-- Models:
+------------------------------------------------------------------------------+
|          Viscosity Model|        Conductivity Model|              Fluid Model|
+------------------------------------------------------------------------------+
|       CONSTANT_VISCOSITY|          CONSTANT_PRANDTL|         CONSTANT_DENSITY|
+------------------------------------------------------------------------------+
-- Fluid properties:
+------------------------------------------------------------------------------+
|                  Name|    Dim. value|    Ref. value|      Unit|Non-dim. value|
+------------------------------------------------------------------------------+
|             Viscosity|         0.001|             1|   N.s/m^2|         0.001|
+------------------------------------------------------------------------------+
|        Prandtl (Lam.)|             -|             -|         -|          0.72|
|       Prandtl (Turb.)|             -|             -|         -|           0.9|
+------------------------------------------------------------------------------+
|          Bulk Modulus|        142000|             1|        Pa|        142000|
+------------------------------------------------------------------------------+
-- Initial and free-stream conditions:
+------------------------------------------------------------------------------+
|                  Name|    Dim. value|    Ref. value|      Unit|Non-dim. value|
+------------------------------------------------------------------------------+
|      Dynamic Pressure|             0|             1|        Pa|             0|
|        Total Pressure|           0.5|             1|        Pa|           0.5|
|               Density|             1|             1|    kg/m^3|             1|
|            Velocity-X|             1|             1|       m/s|             1|
|            Velocity-Y|             0|             1|       m/s|             0|
|    Velocity Magnitude|             1|             1|       m/s|             1|
+------------------------------------------------------------------------------+
|             Viscosity|         0.001|             1|   N.s/m^2|         0.001|
|          Conductivity|             -|    0.00347041|   W/m^2.K|             -|
|     Turb. Kin. Energy|       1.5e-06|             1|   m^2/s^2|       1.5e-06|
|     Spec. Dissipation|       0.00015|             1|       1/s|       0.00015|
+------------------------------------------------------------------------------+
|           Mach Number|             -|             -|         -|    0.00265372|
|       Reynolds Number|             -|             -|         -|          1000|
+------------------------------------------------------------------------------+
Initialize Jacobian structure (Navier-Stokes). MG level: 0.
Initialize Jacobian structure (SST model).

------------------- Numerics Preprocessing ( Zone 0 ) -------------------

----------------- Integration Preprocessing ( Zone 0 ) ------------------

------------------- Iteration Preprocessing ( Zone 0 ) ------------------
Euler/Navier-Stokes/RANS fluid iteration.

------------------------------ Begin Solver -----------------------------

Simulation Run using the Single-zone Driver
+----------------------------------------------------------------+
|  Inner_Iter|      rms[P]|      rms[k]|      rms[w]|       c_avg|
+----------------------------------------------------------------+
|           0|   -1.305239|   -4.994196|   -1.786424|  2.1211e+00|
|         100|   -2.410118|   -7.033756|   -3.411634|  2.3606e+00|
|         200|   -2.907082|   -7.224952|   -3.653702|  2.0409e+00|
|         300|   -3.306338|   -7.718288|   -4.407319|  2.0640e+00|
|         400|   -4.009482|   -7.670295|   -4.687319|  2.0221e+00|
|         500|   -4.455205|   -7.633751|   -5.361768|  2.0216e+00|
+-----------------------------------------------------------------------+
|        File Writing Summary       |              Filename             |
+-----------------------------------------------------------------------+
|SU2 binary restart                 |results/restart.dat                |
|Paraview ASCII                     |vol_solution.vtk                   |
+-----------------------------------------------------------------------+
+----------------------------------------------------------------+
|  Inner_Iter|      rms[P]|      rms[k]|      rms[w]|       c_avg|
+----------------------------------------------------------------+
|         600|   -5.099339|   -7.841159|   -5.692680|  2.0245e+00|
|         700|   -5.448791|   -7.959245|   -6.071839|  2.0243e+00|
|         800|   -5.829986|   -8.088025|   -6.255103|  2.0241e+00|
|         900|   -6.165165|   -8.199844|   -6.404990|  2.0242e+00|
|        1000|   -6.448266|   -8.244489|   -6.482271|  2.0242e+00|
+-----------------------------------------------------------------------+
|        File Writing Summary       |              Filename             |
+-----------------------------------------------------------------------+
|SU2 binary restart                 |results/restart.dat                |
|Paraview ASCII                     |vol_solution.vtk                   |
+-----------------------------------------------------------------------+
+----------------------------------------------------------------+
|  Inner_Iter|      rms[P]|      rms[k]|      rms[w]|       c_avg|
+----------------------------------------------------------------+
|        1100|   -6.744283|   -8.276872|   -6.551992|  2.0242e+00|
|        1200|   -7.062005|   -8.346088|   -6.652549|  2.0242e+00|
|        1300|   -7.407721|   -8.464081|   -6.768325|  2.0242e+00|
|        1400|   -7.782008|   -8.651505|   -6.883477|  2.0242e+00|
|        1500|   -8.005024|   -8.781160|   -6.979321|  2.0242e+00|
+-----------------------------------------------------------------------+
|        File Writing Summary       |              Filename             |
+-----------------------------------------------------------------------+
|SU2 binary restart                 |results/restart.dat                |
|Paraview ASCII                     |vol_solution.vtk                   |
+-----------------------------------------------------------------------+
+----------------------------------------------------------------+
|  Inner_Iter|      rms[P]|      rms[k]|      rms[w]|       c_avg|
+----------------------------------------------------------------+
|        1600|   -8.019305|   -8.815915|   -7.042318|  2.0242e+00|
|        1700|   -8.049033|   -8.830028|   -7.093852|  2.0242e+00|
|        1800|   -8.116795|   -8.850885|   -7.148893|  2.0242e+00|
|        1900|   -8.199021|   -8.870567|   -7.207603|  2.0242e+00|
|        2000|   -8.266599|   -8.883845|   -7.263945|  2.0242e+00|
+-----------------------------------------------------------------------+
|        File Writing Summary       |              Filename             |
+-----------------------------------------------------------------------+
|SU2 binary restart                 |results/restart.dat                |
|Paraview ASCII                     |vol_solution.vtk                   |
+-----------------------------------------------------------------------+
+----------------------------------------------------------------+
|  Inner_Iter|      rms[P]|      rms[k]|      rms[w]|       c_avg|
+----------------------------------------------------------------+
|        2100|   -8.296705|   -8.885899|   -7.307848|  2.0242e+00|
|        2200|   -8.290742|   -8.868354|   -7.326863|  2.0242e+00|
|        2300|   -8.259353|   -8.830121|   -7.319657|  2.0242e+00|
|        2400|   -8.211509|   -8.790899|   -7.299124|  2.0242e+00|
|        2500|   -8.170686|   -8.765274|   -7.274539|  2.0242e+00|
+-----------------------------------------------------------------------+
|        File Writing Summary       |              Filename             |
+-----------------------------------------------------------------------+
|SU2 binary restart                 |results/restart.dat                |
|Paraview ASCII                     |vol_solution.vtk                   |
+-----------------------------------------------------------------------+
+----------------------------------------------------------------+
|  Inner_Iter|      rms[P]|      rms[k]|      rms[w]|       c_avg|
+----------------------------------------------------------------+
|        2600|   -8.144735|   -8.752175|   -7.250886|  2.0242e+00|
|        2700|   -8.129272|   -8.748275|   -7.228789|  2.0242e+00|
|        2800|   -8.123079|   -8.752137|   -7.209993|  2.0242e+00|
|        2900|   -8.125152|   -8.763317|   -7.195798|  2.0242e+00|
|        3000|   -8.134102|   -8.779192|   -7.184395|  2.0242e+00|
+-----------------------------------------------------------------------+
|        File Writing Summary       |              Filename             |
+-----------------------------------------------------------------------+
|SU2 binary restart                 |results/restart.dat                |
|Paraview ASCII                     |vol_solution.vtk                   |
+-----------------------------------------------------------------------+
+----------------------------------------------------------------+
|  Inner_Iter|      rms[P]|      rms[k]|      rms[w]|       c_avg|
+----------------------------------------------------------------+
|        3100|   -8.148036|   -8.799392|   -7.180337|  2.0242e+00|
|        3200|   -8.167482|   -8.828097|   -7.182405|  2.0242e+00|
|        3300|   -8.196425|   -8.862383|   -7.188171|  2.0242e+00|
|        3400|   -8.227655|   -8.898059|   -7.199027|  2.0242e+00|
|        3500|   -8.262303|   -8.939607|   -7.218170|  2.0242e+00|
+-----------------------------------------------------------------------+
|        File Writing Summary       |              Filename             |
+-----------------------------------------------------------------------+
|SU2 binary restart                 |results/restart.dat                |
|Paraview ASCII                     |vol_solution.vtk                   |
+-----------------------------------------------------------------------+
+----------------------------------------------------------------+
|  Inner_Iter|      rms[P]|      rms[k]|      rms[w]|       c_avg|
+----------------------------------------------------------------+
|        3600|   -8.302447|   -8.984924|   -7.241481|  2.0242e+00|
|        3700|   -8.345247|   -9.031867|   -7.268044|  2.0242e+00|
|        3800|   -8.388541|   -9.079160|   -7.297699|  2.0242e+00|
|        3900|   -8.432121|   -9.126594|   -7.329549|  2.0242e+00|
|        4000|   -8.475837|   -9.173065|   -7.358659|  2.0242e+00|
+-----------------------------------------------------------------------+
|        File Writing Summary       |              Filename             |
+-----------------------------------------------------------------------+
|SU2 binary restart                 |results/restart.dat                |
|Paraview ASCII                     |vol_solution.vtk                   |
+-----------------------------------------------------------------------+
+----------------------------------------------------------------+
|  Inner_Iter|      rms[P]|      rms[k]|      rms[w]|       c_avg|
+----------------------------------------------------------------+
|        4100|   -8.517853|   -9.214533|   -7.386885|  2.0242e+00|
|        4200|   -8.554947|   -9.253301|   -7.413754|  2.0242e+00|
|        4300|   -8.591397|   -9.287817|   -7.435989|  2.0242e+00|
|        4400|   -8.623587|   -9.315893|   -7.451575|  2.0242e+00|
|        4500|   -8.649182|   -9.337443|   -7.461150|  2.0242e+00|
+-----------------------------------------------------------------------+
|        File Writing Summary       |              Filename             |
+-----------------------------------------------------------------------+
|SU2 binary restart                 |results/restart.dat                |
|Paraview ASCII                     |vol_solution.vtk                   |
+-----------------------------------------------------------------------+
+----------------------------------------------------------------+
|  Inner_Iter|      rms[P]|      rms[k]|      rms[w]|       c_avg|
+----------------------------------------------------------------+
|        4600|   -8.668786|   -9.351210|   -7.464035|  2.0242e+00|
|        4700|   -8.681820|   -9.363387|   -7.471345|  2.0242e+00|
|        4800|   -8.694070|   -9.378418|   -7.482655|  2.0242e+00|
|        4900|   -8.709682|   -9.398906|   -7.499760|  2.0242e+00|
|        5000|   -8.730439|   -9.422016|   -7.520791|  2.0242e+00|
+-----------------------------------------------------------------------+
|        File Writing Summary       |              Filename             |
+-----------------------------------------------------------------------+
|SU2 binary restart                 |results/restart.dat                |
|Paraview ASCII                     |vol_solution.vtk                   |
+-----------------------------------------------------------------------+
+----------------------------------------------------------------+
|  Inner_Iter|      rms[P]|      rms[k]|      rms[w]|       c_avg|
+----------------------------------------------------------------+
|        5100|   -8.750817|   -9.444885|   -7.543810|  2.0242e+00|
|        5200|   -8.771277|   -9.470228|   -7.572122|  2.0242e+00|
|        5300|   -8.794068|   -9.497725|   -7.601375|  2.0242e+00|
|        5400|   -8.817489|   -9.524165|   -7.631539|  2.0242e+00|
|        5500|   -8.839297|   -9.550458|   -7.664836|  2.0242e+00|
+-----------------------------------------------------------------------+
|        File Writing Summary       |              Filename             |
+-----------------------------------------------------------------------+
|SU2 binary restart                 |results/restart.dat                |
|Paraview ASCII                     |vol_solution.vtk                   |
+-----------------------------------------------------------------------+
+----------------------------------------------------------------+
|  Inner_Iter|      rms[P]|      rms[k]|      rms[w]|       c_avg|
+----------------------------------------------------------------+
|        5600|   -8.861172|   -9.576330|   -7.698499|  2.0242e+00|
|        5700|   -8.881451|   -9.599725|   -7.729096|  2.0242e+00|
|        5800|   -8.899855|   -9.621769|   -7.758478|  2.0242e+00|
|        5900|   -8.917110|   -9.641639|   -7.788635|  2.0242e+00|
|        6000|   -8.932340|   -9.660978|   -7.818349|  2.0242e+00|
+-----------------------------------------------------------------------+
|        File Writing Summary       |              Filename             |
+-----------------------------------------------------------------------+
|SU2 binary restart                 |results/restart.dat                |
|Paraview ASCII                     |vol_solution.vtk                   |
+-----------------------------------------------------------------------+
+----------------------------------------------------------------+
|  Inner_Iter|      rms[P]|      rms[k]|      rms[w]|       c_avg|
+----------------------------------------------------------------+
|        6100|   -8.947199|   -9.679217|   -7.846722|  2.0242e+00|
|        6200|   -8.961749|   -9.696703|   -7.874807|  2.0242e+00|
|        6300|   -8.975210|   -9.714098|   -7.904226|  2.0242e+00|
|        6400|   -8.990176|   -9.734251|   -7.932955|  2.0242e+00|
|        6500|   -9.008161|   -9.755833|   -7.962338|  2.0242e+00|
+-----------------------------------------------------------------------+
|        File Writing Summary       |              Filename             |
+-----------------------------------------------------------------------+
|SU2 binary restart                 |results/restart.dat                |
|Paraview ASCII                     |vol_solution.vtk                   |
+-----------------------------------------------------------------------+
+----------------------------------------------------------------+
|  Inner_Iter|      rms[P]|      rms[k]|      rms[w]|       c_avg|
+----------------------------------------------------------------+
|        6600|   -9.026649|   -9.777613|   -7.990823|  2.0242e+00|
|        6632|   -9.032594|   -9.784751|   -8.000247|  2.0242e+00|

----------------------------- Solver Exit -------------------------------
All convergence criteria satisfied.
+-----------------------------------------------------------------------+
|      Convergence Field     |     Value    |   Criterion  |  Converged |
+-----------------------------------------------------------------------+
|                      rms[P]|      -9.03259|          < -8|         Yes|
|                      rms[k]|      -9.78475|          < -8|         Yes|
|                      rms[w]|      -8.00025|          < -8|         Yes|
+-----------------------------------------------------------------------+
-------------------------------------------------------------------------
+-----------------------------------------------------------------------+
|        File Writing Summary       |              Filename             |
+-----------------------------------------------------------------------+
|SU2 binary restart                 |results/restart.dat                |
|Paraview ASCII                     |vol_solution.vtk                   |
+-----------------------------------------------------------------------+

--------------------------- Finalizing Solver ---------------------------
Deleted CNumerics container.
Deleted CIntegration container.
Deleted CSolver container.
Deleted CIteration container.
Deleted CInterface container.
Deleted CGeometry container.
Deleted CFreeFormDefBox class.
Deleted CSurfaceMovement class.
Deleted CVolumetricMovement class.
Deleted CConfig container.
Deleted nInst container.
Deleted COutput class.
-------------------------------------------------------------------------

------------------------- Exit Success (SU2_CFD) ------------------------

